OpenDSS benchmark/LoadXfmrs2.dss
! Definitions of the 1-phase "center tapped" 120/240V service transformers.
! These transformers are defined as 3-winding transformers (as they are in reality)
! The primary winding is connected 7200V line-to-neutral on one of the phases.
! The secondary windings are consistently connected 1.0 and 0.2 respectively to get the polarity correct.

New Transformer.T21396254A        phases=1 windings=3  wdg=1 bus=L2804253.1 kv=7.2 kVA=15   wdg=2 bus=X2804253A.1.0 kv=0.12 kVA=15   wdg=3 bus=X2804253A.0.2 kv=0.12 kVA=15   %imag=0.0 %Rs=[0.006 0.012 0.012] %noloadloss=.002 Xhl=0.0204  Xht=0.0204  Xlt=0.0136 
New Transformer.T5321859B         phases=1 windings=3  wdg=1 bus=L3254213.2 kv=7.2 kVA=25   wdg=2 bus=X3254213B.1.0 kv=0.12 kVA=25   wdg=3 bus=X3254213B.0.2 kv=0.12 kVA=25   %imag=0.0 %Rs=[0.006 0.012 0.012] %noloadloss=.002 Xhl=0.0204  Xht=0.0204  Xlt=0.0136 
New Transformer.T5391741B         phases=1 windings=3  wdg=1 bus=L3216339.2 kv=7.2 kVA=25   wdg=2 bus=X3216339B.1.0 kv=0.12 kVA=25   wdg=3 bus=X3216339B.0.2 kv=0.12 kVA=25   %imag=0.0 %Rs=[0.006 0.012 0.012] %noloadloss=.002 Xhl=0.0204  Xht=0.0204  Xlt=0.0136 
New Transformer.T5293672A         phases=1 windings=3  wdg=1 bus=L2954355.1 kv=7.2 kVA=15   wdg=2 bus=X2954355A.1.0 kv=0.12 kVA=15   wdg=3 bus=X2954355A.0.2 kv=0.12 kVA=15   %imag=0.0 %Rs=[0.006 0.012 0.012] %noloadloss=.002 Xhl=0.0204  Xht=0.0204  Xlt=0.0136 
New Transformer.T21474711C        phases=1 windings=3  wdg=1 bus=L2861197.3 kv=7.2 kVA=15   wdg=2 bus=X2861197C.1.0 kv=0.12 kVA=15   wdg=3 bus=X2861197C.0.2 kv=0.12 kVA=15   %imag=0.0 %Rs=[0.006 0.012 0.012] %noloadloss=.002 Xhl=0.0204  Xht=0.0204  Xlt=0.0136 
New Transformer.T5260488A         phases=1 windings=3  wdg=1 bus=L2842379.1 kv=7.2 kVA=37.5 wdg=2 bus=X2842379A.1.0 kv=0.12 kVA=37.5 wdg=3 bus=X2842379A.0.2 kv=0.12 kVA=37.5 %imag=0.0 %Rs=[0.006 0.012 0.012] %noloadloss=.002 Xhl=0.0204  Xht=0.0204  Xlt=0.0136 
New Transformer.T5391758B         phases=1 windings=3  wdg=1 bus=L2841636.2 kv=7.2 kVA=15   wdg=2 bus=X2841636B.1.0 kv=0.12 kVA=15   wdg=3 bus=X2841636B.0.2 kv=0.12 kVA=15   %imag=0.0 %Rs=[0.006 0.012 0.012] %noloadloss=.002 Xhl=0.0204  Xht=0.0204  Xlt=0.0136 
New Transformer.T228091193A       phases=1 windings=3  wdg=1 bus=L3047289.1 kv=7.2 kVA=50   wdg=2 bus=X3047289A.1.0 kv=0.12 kVA=50   wdg=3 bus=X3047289A.0.2 kv=0.12 kVA=50   %imag=0.0 %Rs=[0.006 0.012 0.012] %noloadloss=.002 Xhl=0.0204  Xht=0.0204  Xlt=0.0136 
New Transformer.T228091193B       phases=1 windings=3  wdg=1 bus=L3047289.2 kv=7.2 kVA=50   wdg=2 bus=X3047289B.1.0 kv=0.12 kVA=50   wdg=3 bus=X3047289B.0.2 kv=0.12 kVA=50   %imag=0.0 %Rs=[0.006 0.012 0.012] %noloadloss=.002 Xhl=0.0204  Xht=0.0204  Xlt=0.0136 
New Transformer.T228091193C       phases=1 windings=3  wdg=1 bus=L3047289.3 kv=7.2 kVA=50   wdg=2 bus=X3047289C.1.0 kv=0.12 kVA=50   wdg=3 bus=X3047289C.0.2 kv=0.12 kVA=50   %imag=0.0 %Rs=[0.006 0.012 0.012] %noloadloss=.002 Xhl=0.0204  Xht=0.0204  Xlt=0.0136 
New Transformer.T5302862C         phases=1 windings=3  wdg=1 bus=L3085399.3 kv=7.2 kVA=15   wdg=2 bus=X3085399C.1.0 kv=0.12 kVA=15   wdg=3 bus=X3085399C.0.2 kv=0.12 kVA=15   %imag=0.0 %Rs=[0.006 0.012 0.012] %noloadloss=.002 Xhl=0.0204  Xht=0.0204  Xlt=0.0136 
New Transformer.T21236413B        phases=1 windings=3  wdg=1 bus=L3085391.2 kv=7.2 kVA=50   wdg=2 bus=X3085391B.1.0 kv=0.12 kVA=50   wdg=3 bus=X3085391B.0.2 kv=0.12 kVA=50   %imag=0.0 %Rs=[0.006 0.012 0.012] %noloadloss=.002 Xhl=0.0204  Xht=0.0204  Xlt=0.0136 
New Transformer.T5302468A         phases=1 windings=3  wdg=1 bus=L2897778.1 kv=7.2 kVA=10   wdg=2 bus=X2897778A.1.0 kv=0.12 kVA=10   wdg=3 bus=X2897778A.0.2 kv=0.12 kVA=10   %imag=0.0 %Rs=[0.006 0.012 0.012] %noloadloss=.002 Xhl=0.0204  Xht=0.0204  Xlt=0.0136 
New Transformer.T5294787A         phases=1 windings=3  wdg=1 bus=L3197647.1 kv=7.2 kVA=10   wdg=2 bus=X3197647A.1.0 kv=0.12 kVA=10   wdg=3 bus=X3197647A.0.2 kv=0.12 kVA=10   %imag=0.0 %Rs=[0.006 0.012 0.012] %noloadloss=.002 Xhl=0.0204  Xht=0.0204  Xlt=0.0136 
New Transformer.T5157715B         phases=1 windings=3  wdg=1 bus=L2936275.2 kv=7.2 kVA=10   wdg=2 bus=X2936275B.1.0 kv=0.12 kVA=10   wdg=3 bus=X2936275B.0.2 kv=0.12 kVA=10   %imag=0.0 %Rs=[0.006 0.012 0.012] %noloadloss=.002 Xhl=0.0204  Xht=0.0204  Xlt=0.0136 
New Transformer.T5355768B         phases=1 windings=3  wdg=1 bus=L2729408.2 kv=7.2 kVA=25   wdg=2 bus=X2729408B.1.0 kv=0.12 kVA=25   wdg=3 bus=X2729408B.0.2 kv=0.12 kVA=25   %imag=0.0 %Rs=[0.006 0.012 0.012] %noloadloss=.002 Xhl=0.0204  Xht=0.0204  Xlt=0.0136 
New Transformer.T5138562A         phases=1 windings=3  wdg=1 bus=L2673310.1 kv=7.2 kVA=25   wdg=2 bus=X2673310A.1.0 kv=0.12 kVA=25   wdg=3 bus=X2673310A.0.2 kv=0.12 kVA=25   %imag=0.0 %Rs=[0.006 0.012 0.012] %noloadloss=.002 Xhl=0.0204  Xht=0.0204  Xlt=0.0136 
New Transformer.T5355934A         phases=1 windings=3  wdg=1 bus=L3048212.1 kv=7.2 kVA=10   wdg=2 bus=X3048212A.1.0 kv=0.12 kVA=10   wdg=3 bus=X3048212A.0.2 kv=0.12 kVA=10   %imag=0.0 %Rs=[0.006 0.012 0.012] %noloadloss=.002 Xhl=0.0204  Xht=0.0204  Xlt=0.0136 
New Transformer.T5293483A         phases=1 windings=3  wdg=1 bus=L3104133.1 kv=7.2 kVA=25   wdg=2 bus=X3104133A.1.0 kv=0.12 kVA=25   wdg=3 bus=X3104133A.0.2 kv=0.12 kVA=25   %imag=0.0 %Rs=[0.006 0.012 0.012] %noloadloss=.002 Xhl=0.0204  Xht=0.0204  Xlt=0.0136 
New Transformer.T21399762A        phases=1 windings=3  wdg=1 bus=L2879087.1 kv=7.2 kVA=15   wdg=2 bus=X2879087A.1.0 kv=0.12 kVA=15   wdg=3 bus=X2879087A.0.2 kv=0.12 kVA=15   %imag=0.0 %Rs=[0.006 0.012 0.012] %noloadloss=.002 Xhl=0.0204  Xht=0.0204  Xlt=0.0136 
New Transformer.T5138650C         phases=1 windings=3  wdg=1 bus=L2710510.3 kv=7.2 kVA=10   wdg=2 bus=X2710510C.1.0 kv=0.12 kVA=10   wdg=3 bus=X2710510C.0.2 kv=0.12 kVA=10   %imag=0.0 %Rs=[0.006 0.012 0.012] %noloadloss=.002 Xhl=0.0204  Xht=0.0204  Xlt=0.0136 
New Transformer.T5323242B         phases=1 windings=3  wdg=1 bus=L3122810.2 kv=7.2 kVA=25   wdg=2 bus=X3122810B.1.0 kv=0.12 kVA=25   wdg=3 bus=X3122810B.0.2 kv=0.12 kVA=25   %imag=0.0 %Rs=[0.006 0.012 0.012] %noloadloss=.002 Xhl=0.0204  Xht=0.0204  Xlt=0.0136 
New Transformer.T28127090C        phases=1 windings=3  wdg=1 bus=L2954352.3 kv=7.2 kVA=25   wdg=2 bus=X2954352C.1.0 kv=0.12 kVA=25   wdg=3 bus=X2954352C.0.2 kv=0.12 kVA=25   %imag=0.0 %Rs=[0.006 0.012 0.012] %noloadloss=.002 Xhl=0.0204  Xht=0.0204  Xlt=0.0136 
New Transformer.T5138769A         phases=1 windings=3  wdg=1 bus=L2729411.1 kv=7.2 kVA=10   wdg=2 bus=X2729411A.1.0 kv=0.12 kVA=10   wdg=3 bus=X2729411A.0.2 kv=0.12 kVA=10   %imag=0.0 %Rs=[0.006 0.012 0.012] %noloadloss=.002 Xhl=0.0204  Xht=0.0204  Xlt=0.0136 
New Transformer.T5338896A         phases=1 windings=3  wdg=1 bus=L3178971.1 kv=7.2 kVA=15   wdg=2 bus=X3178971A.1.0 kv=0.12 kVA=15   wdg=3 bus=X3178971A.0.2 kv=0.12 kVA=15   %imag=0.0 %Rs=[0.006 0.012 0.012] %noloadloss=.002 Xhl=0.0204  Xht=0.0204  Xlt=0.0136 
New Transformer.T5355586B         phases=1 windings=3  wdg=1 bus=L3254234.2 kv=7.2 kVA=25   wdg=2 bus=X3254234B.1.0 kv=0.12 kVA=25   wdg=3 bus=X3254234B.0.2 kv=0.12 kVA=25   %imag=0.0 %Rs=[0.006 0.012 0.012] %noloadloss=.002 Xhl=0.0204  Xht=0.0204  Xlt=0.0136 
New Transformer.T5293471A         phases=1 windings=3  wdg=1 bus=293471.1   kv=7.2 kVA=25   wdg=2 bus=X_293471A.1.0 kv=0.12 kVA=25   wdg=3 bus=X_293471A.0.2 kv=0.12 kVA=25   %imag=0.0 %Rs=[0.006 0.012 0.012] %noloadloss=.002 Xhl=0.0204  Xht=0.0204  Xlt=0.0136 
New Transformer.T5293471B         phases=1 windings=3  wdg=1 bus=293471.2   kv=7.2 kVA=25   wdg=2 bus=X_293471B.1.0 kv=0.12 kVA=25   wdg=3 bus=X_293471B.0.2 kv=0.12 kVA=25   %imag=0.0 %Rs=[0.006 0.012 0.012] %noloadloss=.002 Xhl=0.0204  Xht=0.0204  Xlt=0.0136 
New Transformer.T5293471C         phases=1 windings=3  wdg=1 bus=293471.3   kv=7.2 kVA=25   wdg=2 bus=X_293471C.1.0 kv=0.12 kVA=25   wdg=3 bus=X_293471C.0.2 kv=0.12 kVA=25   %imag=0.0 %Rs=[0.006 0.012 0.012] %noloadloss=.002 Xhl=0.0204  Xht=0.0204  Xlt=0.0136 
New Transformer.T5338954A         phases=1 windings=3  wdg=1 bus=L2860482.1 kv=7.2 kVA=25   wdg=2 bus=X2860482A.1.0 kv=0.12 kVA=25   wdg=3 bus=X2860482A.0.2 kv=0.12 kVA=25   %imag=0.0 %Rs=[0.006 0.012 0.012] %noloadloss=.002 Xhl=0.0204  Xht=0.0204  Xlt=0.0136 
New Transformer.T21459629C        phases=1 windings=3  wdg=1 bus=L2763811.3 kv=7.2 kVA=75   wdg=2 bus=X2763811C.1.0 kv=0.12 kVA=75   wdg=3 bus=X2763811C.0.2 kv=0.12 kVA=75   %imag=0.0 %Rs=[0.006 0.012 0.012] %noloadloss=.002 Xhl=0.0204  Xht=0.0204  Xlt=0.0136 
New Transformer.T5260562A         phases=1 windings=3  wdg=1 bus=L3251799.1 kv=7.2 kVA=37.5 wdg=2 bus=X3251799A.1.0 kv=0.12 kVA=37.5 wdg=3 bus=X3251799A.0.2 kv=0.12 kVA=37.5 %imag=0.0 %Rs=[0.006 0.012 0.012] %noloadloss=.002 Xhl=0.0204  Xht=0.0204  Xlt=0.0136 
New Transformer.T21393486C        phases=1 windings=3  wdg=1 bus=L2898526.3 kv=7.2 kVA=15   wdg=2 bus=X2898526C.1.0 kv=0.12 kVA=15   wdg=3 bus=X2898526C.0.2 kv=0.12 kVA=15   %imag=0.0 %Rs=[0.006 0.012 0.012] %noloadloss=.002 Xhl=0.0204  Xht=0.0204  Xlt=0.0136 
New Transformer.T5293518B         phases=1 windings=3  wdg=1 bus=L2897780.2 kv=7.2 kVA=25   wdg=2 bus=X2897780B.1.0 kv=0.12 kVA=25   wdg=3 bus=X2897780B.0.2 kv=0.12 kVA=25   %imag=0.0 %Rs=[0.006 0.012 0.012] %noloadloss=.002 Xhl=0.0204  Xht=0.0204  Xlt=0.0136 
New Transformer.T226195194C       phases=1 windings=3  wdg=1 bus=L3027124.3 kv=7.2 kVA=25   wdg=2 bus=X3027124C.1.0 kv=0.12 kVA=25   wdg=3 bus=X3027124C.0.2 kv=0.12 kVA=25   %imag=0.0 %Rs=[0.006 0.012 0.012] %noloadloss=.002 Xhl=0.0204  Xht=0.0204  Xlt=0.0136 
New Transformer.T21383494B        phases=1 windings=3  wdg=1 bus=L2954361.2 kv=7.2 kVA=25   wdg=2 bus=X2954361B.1.0 kv=0.12 kVA=25   wdg=3 bus=X2954361B.0.2 kv=0.12 kVA=25   %imag=0.0 %Rs=[0.006 0.012 0.012] %noloadloss=.002 Xhl=0.0204  Xht=0.0204  Xlt=0.0136 
New Transformer.T5251863C         phases=1 windings=3  wdg=1 bus=L2745811.3 kv=7.2 kVA=25   wdg=2 bus=X2745811C.1.0 kv=0.12 kVA=25   wdg=3 bus=X2745811C.0.2 kv=0.12 kVA=25   %imag=0.0 %Rs=[0.006 0.012 0.012] %noloadloss=.002 Xhl=0.0204  Xht=0.0204  Xlt=0.0136 
New Transformer.T5293645A         phases=1 windings=3  wdg=1 bus=L2841633.1 kv=7.2 kVA=25   wdg=2 bus=X2841633A.1.0 kv=0.12 kVA=25   wdg=3 bus=X2841633A.0.2 kv=0.12 kVA=25   %imag=0.0 %Rs=[0.006 0.012 0.012] %noloadloss=.002 Xhl=0.0204  Xht=0.0204  Xlt=0.0136 
New Transformer.T21482431A        phases=1 windings=3  wdg=1 bus=L2917359.1 kv=7.2 kVA=15   wdg=2 bus=X2917359A.1.0 kv=0.12 kVA=15   wdg=3 bus=X2917359A.0.2 kv=0.12 kVA=15   %imag=0.0 %Rs=[0.006 0.012 0.012] %noloadloss=.002 Xhl=0.0204  Xht=0.0204  Xlt=0.0136 
New Transformer.T5293480A         phases=1 windings=3  wdg=1 bus=L2748158.1 kv=7.2 kVA=15   wdg=2 bus=X2748158A.1.0 kv=0.12 kVA=15   wdg=3 bus=X2748158A.0.2 kv=0.12 kVA=15   %imag=0.0 %Rs=[0.006 0.012 0.012] %noloadloss=.002 Xhl=0.0204  Xht=0.0204  Xlt=0.0136 
New Transformer.T21469911A        phases=1 windings=3  wdg=1 bus=L2955047.1 kv=7.2 kVA=25   wdg=2 bus=X2955047A.1.0 kv=0.12 kVA=25   wdg=3 bus=X2955047A.0.2 kv=0.12 kVA=25   %imag=0.0 %Rs=[0.006 0.012 0.012] %noloadloss=.002 Xhl=0.0204  Xht=0.0204  Xlt=0.0136 
New Transformer.T5355432C         phases=1 windings=3  wdg=1 bus=L3122837.3 kv=7.2 kVA=37.5 wdg=2 bus=X3122837C.1.0 kv=0.12 kVA=37.5 wdg=3 bus=X3122837C.0.2 kv=0.12 kVA=37.5 %imag=0.0 %Rs=[0.006 0.012 0.012] %noloadloss=.002 Xhl=0.0204  Xht=0.0204  Xlt=0.0136 
New Transformer.T5323285B         phases=1 windings=3  wdg=1 bus=L2804269.2 kv=7.2 kVA=25   wdg=2 bus=X2804269B.1.0 kv=0.12 kVA=25   wdg=3 bus=X2804269B.0.2 kv=0.12 kVA=25   %imag=0.0 %Rs=[0.006 0.012 0.012] %noloadloss=.002 Xhl=0.0204  Xht=0.0204  Xlt=0.0136 
New Transformer.T226192954C       phases=1 windings=3  wdg=1 bus=L3157708.3 kv=7.2 kVA=15   wdg=2 bus=X3157708C.1.0 kv=0.12 kVA=15   wdg=3 bus=X3157708C.0.2 kv=0.12 kVA=15   %imag=0.0 %Rs=[0.006 0.012 0.012] %noloadloss=.002 Xhl=0.0204  Xht=0.0204  Xlt=0.0136 
New Transformer.T5207292C         phases=1 windings=3  wdg=1 bus=L3179682.3 kv=7.2 kVA=15   wdg=2 bus=X3179682C.1.0 kv=0.12 kVA=15   wdg=3 bus=X3179682C.0.2 kv=0.12 kVA=15   %imag=0.0 %Rs=[0.006 0.012 0.012] %noloadloss=.002 Xhl=0.0204  Xht=0.0204  Xlt=0.0136 
New Transformer.T5337672B         phases=1 windings=3  wdg=1 bus=L2822877.2 kv=7.2 kVA=15   wdg=2 bus=X2822877B.1.0 kv=0.12 kVA=15   wdg=3 bus=X2822877B.0.2 kv=0.12 kVA=15   %imag=0.0 %Rs=[0.006 0.012 0.012] %noloadloss=.002 Xhl=0.0204  Xht=0.0204  Xlt=0.0136 
New Transformer.T5442373C         phases=1 windings=3  wdg=1 bus=L3141393.3 kv=7.2 kVA=25   wdg=2 bus=X3141393C.1.0 kv=0.12 kVA=25   wdg=3 bus=X3141393C.0.2 kv=0.12 kVA=25   %imag=0.0 %Rs=[0.006 0.012 0.012] %noloadloss=.002 Xhl=0.0204  Xht=0.0204  Xlt=0.0136 
New Transformer.T21470405A        phases=1 windings=3  wdg=1 bus=L2897801.1 kv=7.2 kVA=37.5 wdg=2 bus=X2897801A.1.0 kv=0.12 kVA=37.5 wdg=3 bus=X2897801A.0.2 kv=0.12 kVA=37.5 %imag=0.0 %Rs=[0.006 0.012 0.012] %noloadloss=.002 Xhl=0.0204  Xht=0.0204  Xlt=0.0136 
New Transformer.T5218474A         phases=1 windings=3  wdg=1 bus=L3217056.1 kv=7.2 kVA=50   wdg=2 bus=X3217056A.1.0 kv=0.12 kVA=50   wdg=3 bus=X3217056A.0.2 kv=0.12 kVA=50   %imag=0.0 %Rs=[0.006 0.012 0.012] %noloadloss=.002 Xhl=0.0204  Xht=0.0204  Xlt=0.0136 
New Transformer.T5218472A         phases=1 windings=3  wdg=1 bus=L2936270.1 kv=7.2 kVA=25   wdg=2 bus=X2936270A.1.0 kv=0.12 kVA=25   wdg=3 bus=X2936270A.0.2 kv=0.12 kVA=25   %imag=0.0 %Rs=[0.006 0.012 0.012] %noloadloss=.002 Xhl=0.0204  Xht=0.0204  Xlt=0.0136 
New Transformer.T5356014A         phases=1 windings=3  wdg=1 bus=L3235249.1 kv=7.2 kVA=10   wdg=2 bus=X3235249A.1.0 kv=0.12 kVA=10   wdg=3 bus=X3235249A.0.2 kv=0.12 kVA=10   %imag=0.0 %Rs=[0.006 0.012 0.012] %noloadloss=.002 Xhl=0.0204  Xht=0.0204  Xlt=0.0136 
New Transformer.T5260528C         phases=1 windings=3  wdg=1 bus=L3217052.3 kv=7.2 kVA=25   wdg=2 bus=X3217052C.1.0 kv=0.12 kVA=25   wdg=3 bus=X3217052C.0.2 kv=0.12 kVA=25   %imag=0.0 %Rs=[0.006 0.012 0.012] %noloadloss=.002 Xhl=0.0204  Xht=0.0204  Xlt=0.0136 
New Transformer.T5355933A         phases=1 windings=3  wdg=1 bus=L2916598.1 kv=7.2 kVA=10   wdg=2 bus=X2916598A.1.0 kv=0.12 kVA=10   wdg=3 bus=X2916598A.0.2 kv=0.12 kVA=10   %imag=0.0 %Rs=[0.006 0.012 0.012] %noloadloss=.002 Xhl=0.0204  Xht=0.0204  Xlt=0.0136 
New Transformer.T5138649A         phases=1 windings=3  wdg=1 bus=L3048206.1 kv=7.2 kVA=25   wdg=2 bus=X3048206A.1.0 kv=0.12 kVA=25   wdg=3 bus=X3048206A.0.2 kv=0.12 kVA=25   %imag=0.0 %Rs=[0.006 0.012 0.012] %noloadloss=.002 Xhl=0.0204  Xht=0.0204  Xlt=0.0136 
New Transformer.T5391978C         phases=1 windings=3  wdg=1 bus=L3141402.3 kv=7.2 kVA=25   wdg=2 bus=X3141402C.1.0 kv=0.12 kVA=25   wdg=3 bus=X3141402C.0.2 kv=0.12 kVA=25   %imag=0.0 %Rs=[0.006 0.012 0.012] %noloadloss=.002 Xhl=0.0204  Xht=0.0204  Xlt=0.0136 
New Transformer.T5138642A         phases=1 windings=3  wdg=1 bus=L3235256.1 kv=7.2 kVA=15   wdg=2 bus=X3235256A.1.0 kv=0.12 kVA=15   wdg=3 bus=X3235256A.0.2 kv=0.12 kVA=15   %imag=0.0 %Rs=[0.006 0.012 0.012] %noloadloss=.002 Xhl=0.0204  Xht=0.0204  Xlt=0.0136 
New Transformer.T21149420A        phases=1 windings=3  wdg=1 bus=L3178973.1 kv=7.2 kVA=25   wdg=2 bus=X3178973A.1.0 kv=0.12 kVA=25   wdg=3 bus=X3178973A.0.2 kv=0.12 kVA=25   %imag=0.0 %Rs=[0.006 0.012 0.012] %noloadloss=.002 Xhl=0.0204  Xht=0.0204  Xlt=0.0136 
New Transformer.T21382992A        phases=1 windings=3  wdg=1 bus=L3197654.1 kv=7.2 kVA=25   wdg=2 bus=X3197654A.1.0 kv=0.12 kVA=25   wdg=3 bus=X3197654A.0.2 kv=0.12 kVA=25   %imag=0.0 %Rs=[0.006 0.012 0.012] %noloadloss=.002 Xhl=0.0204  Xht=0.0204  Xlt=0.0136 
New Transformer.T5338958C         phases=1 windings=3  wdg=1 bus=L3066809.3 kv=7.2 kVA=25   wdg=2 bus=X3066809C.1.0 kv=0.12 kVA=25   wdg=3 bus=X3066809C.0.2 kv=0.12 kVA=25   %imag=0.0 %Rs=[0.006 0.012 0.012] %noloadloss=.002 Xhl=0.0204  Xht=0.0204  Xlt=0.0136 
New Transformer.T5355585B         phases=1 windings=3  wdg=1 bus=L2766742.2 kv=7.2 kVA=15   wdg=2 bus=X2766742B.1.0 kv=0.12 kVA=15   wdg=3 bus=X2766742B.0.2 kv=0.12 kVA=15   %imag=0.0 %Rs=[0.006 0.012 0.012] %noloadloss=.002 Xhl=0.0204  Xht=0.0204  Xlt=0.0136 
New Transformer.T5338900A         phases=1 windings=3  wdg=1 bus=L2991908.1 kv=7.2 kVA=15   wdg=2 bus=X2991908A.1.0 kv=0.12 kVA=15   wdg=3 bus=X2991908A.0.2 kv=0.12 kVA=15   %imag=0.0 %Rs=[0.006 0.012 0.012] %noloadloss=.002 Xhl=0.0204  Xht=0.0204  Xlt=0.0136 
New Transformer.T5323389B         phases=1 windings=3  wdg=1 bus=L3065750.2 kv=7.2 kVA=25   wdg=2 bus=X3065750B.1.0 kv=0.12 kVA=25   wdg=3 bus=X3065750B.0.2 kv=0.12 kVA=25   %imag=0.0 %Rs=[0.006 0.012 0.012] %noloadloss=.002 Xhl=0.0204  Xht=0.0204  Xlt=0.0136 
New Transformer.T28127253A        phases=1 windings=3  wdg=1 bus=L3085401.1 kv=7.2 kVA=37.5 wdg=2 bus=X3085401A.1.0 kv=0.12 kVA=37.5 wdg=3 bus=X3085401A.0.2 kv=0.12 kVA=37.5 %imag=0.0 %Rs=[0.006 0.012 0.012] %noloadloss=.002 Xhl=0.0204  Xht=0.0204  Xlt=0.0136 
New Transformer.T21397067A        phases=1 windings=3  wdg=1 bus=L2729413.1 kv=7.2 kVA=15   wdg=2 bus=X2729413A.1.0 kv=0.12 kVA=15   wdg=3 bus=X2729413A.0.2 kv=0.12 kVA=15   %imag=0.0 %Rs=[0.006 0.012 0.012] %noloadloss=.002 Xhl=0.0204  Xht=0.0204  Xlt=0.0136 
New Transformer.T5260520B         phases=1 windings=3  wdg=1 bus=L3254915.2 kv=7.2 kVA=5    wdg=2 bus=X3254915B.1.0 kv=0.12 kVA=5    wdg=3 bus=X3254915B.0.2 kv=0.12 kVA=5    %imag=0.0 %Rs=[0.006 0.012 0.012] %noloadloss=.002 Xhl=0.0204  Xht=0.0204  Xlt=0.0136 
New Transformer.T5323250B         phases=1 windings=3  wdg=1 bus=L2748131.2 kv=7.2 kVA=15   wdg=2 bus=X2748131B.1.0 kv=0.12 kVA=15   wdg=3 bus=X2748131B.0.2 kv=0.12 kVA=15   %imag=0.0 %Rs=[0.006 0.012 0.012] %noloadloss=.002 Xhl=0.0204  Xht=0.0204  Xlt=0.0136 
New Transformer.T5337659C         phases=1 windings=3  wdg=1 bus=L3066810.3 kv=7.2 kVA=25   wdg=2 bus=X3066810C.1.0 kv=0.12 kVA=25   wdg=3 bus=X3066810C.0.2 kv=0.12 kVA=25   %imag=0.0 %Rs=[0.006 0.012 0.012] %noloadloss=.002 Xhl=0.0204  Xht=0.0204  Xlt=0.0136 
New Transformer.T28118903B        phases=1 windings=3  wdg=1 bus=L2973146.2 kv=7.2 kVA=25   wdg=2 bus=X2973146B.1.0 kv=0.12 kVA=25   wdg=3 bus=X2973146B.0.2 kv=0.12 kVA=25   %imag=0.0 %Rs=[0.006 0.012 0.012] %noloadloss=.002 Xhl=0.0204  Xht=0.0204  Xlt=0.0136 
New Transformer.T21398646B        phases=1 windings=3  wdg=1 bus=L2973180.2 kv=7.2 kVA=25   wdg=2 bus=X2973180B.1.0 kv=0.12 kVA=25   wdg=3 bus=X2973180B.0.2 kv=0.12 kVA=25   %imag=0.0 %Rs=[0.006 0.012 0.012] %noloadloss=.002 Xhl=0.0204  Xht=0.0204  Xlt=0.0136 
New Transformer.T5293656B         phases=1 windings=3  wdg=1 bus=L2973167.2 kv=7.2 kVA=15   wdg=2 bus=X2973167B.1.0 kv=0.12 kVA=15   wdg=3 bus=X2973167B.0.2 kv=0.12 kVA=15   %imag=0.0 %Rs=[0.006 0.012 0.012] %noloadloss=.002 Xhl=0.0204  Xht=0.0204  Xlt=0.0136 
New Transformer.T5338910C         phases=1 windings=3  wdg=1 bus=L2841621.3 kv=7.2 kVA=25   wdg=2 bus=X2841621C.1.0 kv=0.12 kVA=25   wdg=3 bus=X2841621C.0.2 kv=0.12 kVA=25   %imag=0.0 %Rs=[0.006 0.012 0.012] %noloadloss=.002 Xhl=0.0204  Xht=0.0204  Xlt=0.0136 
New Transformer.T28129923C        phases=1 windings=3  wdg=1 bus=L3123509.3 kv=7.2 kVA=15   wdg=2 bus=X3123509C.1.0 kv=0.12 kVA=15   wdg=3 bus=X3123509C.0.2 kv=0.12 kVA=15   %imag=0.0 %Rs=[0.006 0.012 0.012] %noloadloss=.002 Xhl=0.0204  Xht=0.0204  Xlt=0.0136 
New Transformer.T5337716A         phases=1 windings=3  wdg=1 bus=L2841627.1 kv=7.2 kVA=15   wdg=2 bus=X2841627A.1.0 kv=0.12 kVA=15   wdg=3 bus=X2841627A.0.2 kv=0.12 kVA=15   %imag=0.0 %Rs=[0.006 0.012 0.012] %noloadloss=.002 Xhl=0.0204  Xht=0.0204  Xlt=0.0136 
New Transformer.T5337698B         phases=1 windings=3  wdg=1 bus=L3235250.2 kv=7.2 kVA=10   wdg=2 bus=X3235250B.1.0 kv=0.12 kVA=10   wdg=3 bus=X3235250B.0.2 kv=0.12 kVA=10   %imag=0.0 %Rs=[0.006 0.012 0.012] %noloadloss=.002 Xhl=0.0204  Xht=0.0204  Xlt=0.0136 
New Transformer.T2224386946A      phases=1 windings=3  wdg=1 bus=L3728037.1 kv=7.2 kVA=25   wdg=2 bus=X3728037A.1.0 kv=0.12 kVA=25   wdg=3 bus=X3728037A.0.2 kv=0.12 kVA=25   %imag=0.0 %Rs=[0.006 0.012 0.012] %noloadloss=.002 Xhl=0.0204  Xht=0.0204  Xlt=0.0136 
New Transformer.T5330121B         phases=1 windings=3  wdg=1 bus=L3142078.2 kv=7.2 kVA=10   wdg=2 bus=X3142078B.1.0 kv=0.12 kVA=10   wdg=3 bus=X3142078B.0.2 kv=0.12 kVA=10   %imag=0.0 %Rs=[0.006 0.012 0.012] %noloadloss=.002 Xhl=0.0204  Xht=0.0204  Xlt=0.0136 
New Transformer.T5323252B         phases=1 windings=3  wdg=1 bus=L2879066.2 kv=7.2 kVA=15   wdg=2 bus=X2879066B.1.0 kv=0.12 kVA=15   wdg=3 bus=X2879066B.0.2 kv=0.12 kVA=15   %imag=0.0 %Rs=[0.006 0.012 0.012] %noloadloss=.002 Xhl=0.0204  Xht=0.0204  Xlt=0.0136 
New Transformer.T5441331C         phases=1 windings=3  wdg=1 bus=L3235254.3 kv=7.2 kVA=25   wdg=2 bus=X3235254C.1.0 kv=0.12 kVA=25   wdg=3 bus=X3235254C.0.2 kv=0.12 kVA=25   %imag=0.0 %Rs=[0.006 0.012 0.012] %noloadloss=.002 Xhl=0.0204  Xht=0.0204  Xlt=0.0136 
New Transformer.T5260474A         phases=1 windings=3  wdg=1 bus=L2917330.1 kv=7.2 kVA=25   wdg=2 bus=X2917330A.1.0 kv=0.12 kVA=25   wdg=3 bus=X2917330A.0.2 kv=0.12 kVA=25   %imag=0.0 %Rs=[0.006 0.012 0.012] %noloadloss=.002 Xhl=0.0204  Xht=0.0204  Xlt=0.0136 
New Transformer.T5355376B         phases=1 windings=3  wdg=1 bus=L2914323.2 kv=7.2 kVA=10   wdg=2 bus=X2914323B.1.0 kv=0.12 kVA=10   wdg=3 bus=X2914323B.0.2 kv=0.12 kVA=10   %imag=0.0 %Rs=[0.006 0.012 0.012] %noloadloss=.002 Xhl=0.0204  Xht=0.0204  Xlt=0.0136 
New Transformer.T5338944C         phases=1 windings=3  wdg=1 bus=L3197640.3 kv=7.2 kVA=10   wdg=2 bus=X3197640C.1.0 kv=0.12 kVA=10   wdg=3 bus=X3197640C.0.2 kv=0.12 kVA=10   %imag=0.0 %Rs=[0.006 0.012 0.012] %noloadloss=.002 Xhl=0.0204  Xht=0.0204  Xlt=0.0136 
New Transformer.T5260640C         phases=1 windings=3  wdg=1 bus=L3179673.3 kv=7.2 kVA=15   wdg=2 bus=X3179673C.1.0 kv=0.12 kVA=15   wdg=3 bus=X3179673C.0.2 kv=0.12 kVA=15   %imag=0.0 %Rs=[0.006 0.012 0.012] %noloadloss=.002 Xhl=0.0204  Xht=0.0204  Xlt=0.0136 
New Transformer.T5274997C         phases=1 windings=3  wdg=1 bus=L3048228.3 kv=7.2 kVA=25   wdg=2 bus=X3048228C.1.0 kv=0.12 kVA=25   wdg=3 bus=X3048228C.0.2 kv=0.12 kVA=25   %imag=0.0 %Rs=[0.006 0.012 0.012] %noloadloss=.002 Xhl=0.0204  Xht=0.0204  Xlt=0.0136 
New Transformer.T5138372C         phases=1 windings=3  wdg=1 bus=L3104126.3 kv=7.2 kVA=10   wdg=2 bus=X3104126C.1.0 kv=0.12 kVA=10   wdg=3 bus=X3104126C.0.2 kv=0.12 kVA=10   %imag=0.0 %Rs=[0.006 0.012 0.012] %noloadloss=.002 Xhl=0.0204  Xht=0.0204  Xlt=0.0136 
New Transformer.T226308721A       phases=1 windings=3  wdg=1 bus=L2990098.1 kv=7.2 kVA=50   wdg=2 bus=X2990098A.1.0 kv=0.12 kVA=50   wdg=3 bus=X2990098A.0.2 kv=0.12 kVA=50   %imag=0.0 %Rs=[0.006 0.012 0.012] %noloadloss=.002 Xhl=0.0204  Xht=0.0204  Xlt=0.0136 
New Transformer.T21380616A        phases=1 windings=3  wdg=1 bus=L2879067.1 kv=7.2 kVA=25   wdg=2 bus=X2879067A.1.0 kv=0.12 kVA=25   wdg=3 bus=X2879067A.0.2 kv=0.12 kVA=25   %imag=0.0 %Rs=[0.006 0.012 0.012] %noloadloss=.002 Xhl=0.0204  Xht=0.0204  Xlt=0.0136 
New Transformer.T226193170A       phases=1 windings=3  wdg=1 bus=L3176656.1 kv=7.2 kVA=25   wdg=2 bus=X3176656A.1.0 kv=0.12 kVA=25   wdg=3 bus=X3176656A.0.2 kv=0.12 kVA=25   %imag=0.0 %Rs=[0.006 0.012 0.012] %noloadloss=.002 Xhl=0.0204  Xht=0.0204  Xlt=0.0136 
New Transformer.T5293666C         phases=1 windings=3  wdg=1 bus=L2710532.3 kv=7.2 kVA=10   wdg=2 bus=X2710532C.1.0 kv=0.12 kVA=10   wdg=3 bus=X2710532C.0.2 kv=0.12 kVA=10   %imag=0.0 %Rs=[0.006 0.012 0.012] %noloadloss=.002 Xhl=0.0204  Xht=0.0204  Xlt=0.0136 
New Transformer.T5338994B         phases=1 windings=3  wdg=1 bus=L3160115.2 kv=7.2 kVA=50   wdg=2 bus=X3160115B.1.0 kv=0.12 kVA=50   wdg=3 bus=X3160115B.0.2 kv=0.12 kVA=50   %imag=0.0 %Rs=[0.006 0.012 0.012] %noloadloss=.002 Xhl=0.0204  Xht=0.0204  Xlt=0.0136 
New Transformer.T228665517C       phases=1 windings=3  wdg=1 bus=L3103822.3 kv=7.2 kVA=37.5 wdg=2 bus=X3103822C.1.0 kv=0.12 kVA=37.5 wdg=3 bus=X3103822C.0.2 kv=0.12 kVA=37.5 %imag=0.0 %Rs=[0.006 0.012 0.012] %noloadloss=.002 Xhl=0.0204  Xht=0.0204  Xlt=0.0136 
New Transformer.T5260647A         phases=1 windings=3  wdg=1 bus=L2805034.1 kv=7.2 kVA=10   wdg=2 bus=X2805034A.1.0 kv=0.12 kVA=10   wdg=3 bus=X2805034A.0.2 kv=0.12 kVA=10   %imag=0.0 %Rs=[0.006 0.012 0.012] %noloadloss=.002 Xhl=0.0204  Xht=0.0204  Xlt=0.0136 
New Transformer.T226115278A       phases=1 windings=3  wdg=1 bus=L3157167.1 kv=7.2 kVA=15   wdg=2 bus=X3157167A.1.0 kv=0.12 kVA=15   wdg=3 bus=X3157167A.0.2 kv=0.12 kVA=15   %imag=0.0 %Rs=[0.006 0.012 0.012] %noloadloss=.002 Xhl=0.0204  Xht=0.0204  Xlt=0.0136 
New Transformer.T5338977A         phases=1 windings=3  wdg=1 bus=L2916620.1 kv=7.2 kVA=10   wdg=2 bus=X2916620A.1.0 kv=0.12 kVA=10   wdg=3 bus=X2916620A.0.2 kv=0.12 kVA=10   %imag=0.0 %Rs=[0.006 0.012 0.012] %noloadloss=.002 Xhl=0.0204  Xht=0.0204  Xlt=0.0136 
New Transformer.T5338977B         phases=1 windings=3  wdg=1 bus=L2916620.2 kv=7.2 kVA=10   wdg=2 bus=X2916620B.1.0 kv=0.12 kVA=10   wdg=3 bus=X2916620B.0.2 kv=0.12 kVA=10   %imag=0.0 %Rs=[0.006 0.012 0.012] %noloadloss=.002 Xhl=0.0204  Xht=0.0204  Xlt=0.0136 
New Transformer.T5338977C         phases=1 windings=3  wdg=1 bus=L2916620.3 kv=7.2 kVA=10   wdg=2 bus=X2916620C.1.0 kv=0.12 kVA=10   wdg=3 bus=X2916620C.0.2 kv=0.12 kVA=10   %imag=0.0 %Rs=[0.006 0.012 0.012] %noloadloss=.002 Xhl=0.0204  Xht=0.0204  Xlt=0.0136 
New Transformer.T5321876A         phases=1 windings=3  wdg=1 bus=L3027132.1 kv=7.2 kVA=15   wdg=2 bus=X3027132A.1.0 kv=0.12 kVA=15   wdg=3 bus=X3027132A.0.2 kv=0.12 kVA=15   %imag=0.0 %Rs=[0.006 0.012 0.012] %noloadloss=.002 Xhl=0.0204  Xht=0.0204  Xlt=0.0136 
New Transformer.T5275001C         phases=1 windings=3  wdg=1 bus=L2822862.3 kv=7.2 kVA=15   wdg=2 bus=X2822862C.1.0 kv=0.12 kVA=15   wdg=3 bus=X2822862C.0.2 kv=0.12 kVA=15   %imag=0.0 %Rs=[0.006 0.012 0.012] %noloadloss=.002 Xhl=0.0204  Xht=0.0204  Xlt=0.0136 
New Transformer.T227411650C       phases=1 windings=3  wdg=1 bus=L2937757.3 kv=7.2 kVA=25   wdg=2 bus=X2937757C.1.0 kv=0.12 kVA=25   wdg=3 bus=X2937757C.0.2 kv=0.12 kVA=25   %imag=0.0 %Rs=[0.006 0.012 0.012] %noloadloss=.002 Xhl=0.0204  Xht=0.0204  Xlt=0.0136 
New Transformer.T21396699B        phases=1 windings=3  wdg=1 bus=L2860483.2 kv=7.2 kVA=25   wdg=2 bus=X2860483B.1.0 kv=0.12 kVA=25   wdg=3 bus=X2860483B.0.2 kv=0.12 kVA=25   %imag=0.0 %Rs=[0.006 0.012 0.012] %noloadloss=.002 Xhl=0.0204  Xht=0.0204  Xlt=0.0136 
New Transformer.T5302412A         phases=1 windings=3  wdg=1 bus=L3048210.1 kv=7.2 kVA=37.5 wdg=2 bus=X3048210A.1.0 kv=0.12 kVA=37.5 wdg=3 bus=X3048210A.0.2 kv=0.12 kVA=37.5 %imag=0.0 %Rs=[0.006 0.012 0.012] %noloadloss=.002 Xhl=0.0204  Xht=0.0204  Xlt=0.0136 
New Transformer.T2223661373A      phases=1 windings=3  wdg=1 bus=L3312692.1 kv=7.2 kVA=25   wdg=2 bus=X3312692A.1.0 kv=0.12 kVA=25   wdg=3 bus=X3312692A.0.2 kv=0.12 kVA=25   %imag=0.0 %Rs=[0.006 0.012 0.012] %noloadloss=.002 Xhl=0.0204  Xht=0.0204  Xlt=0.0136 
New Transformer.T226881700A       phases=1 windings=3  wdg=1 bus=L3251854.1 kv=7.2 kVA=25   wdg=2 bus=X3251854A.1.0 kv=0.12 kVA=25   wdg=3 bus=X3251854A.0.2 kv=0.12 kVA=25   %imag=0.0 %Rs=[0.006 0.012 0.012] %noloadloss=.002 Xhl=0.0204  Xht=0.0204  Xlt=0.0136 
New Transformer.T5355777B         phases=1 windings=3  wdg=1 bus=L3085398.2 kv=7.2 kVA=25   wdg=2 bus=X3085398B.1.0 kv=0.12 kVA=25   wdg=3 bus=X3085398B.0.2 kv=0.12 kVA=25   %imag=0.0 %Rs=[0.006 0.012 0.012] %noloadloss=.002 Xhl=0.0204  Xht=0.0204  Xlt=0.0136 
New Transformer.T5337671A         phases=1 windings=3  wdg=1 bus=L3254207.1 kv=7.2 kVA=15   wdg=2 bus=X3254207A.1.0 kv=0.12 kVA=15   wdg=3 bus=X3254207A.0.2 kv=0.12 kVA=15   %imag=0.0 %Rs=[0.006 0.012 0.012] %noloadloss=.002 Xhl=0.0204  Xht=0.0204  Xlt=0.0136 
New Transformer.T5339018A         phases=1 windings=3  wdg=1 bus=L2729424.1 kv=7.2 kVA=15   wdg=2 bus=X2729424A.1.0 kv=0.12 kVA=15   wdg=3 bus=X2729424A.0.2 kv=0.12 kVA=15   %imag=0.0 %Rs=[0.006 0.012 0.012] %noloadloss=.002 Xhl=0.0204  Xht=0.0204  Xlt=0.0136 
New Transformer.T21398676A        phases=1 windings=3  wdg=1 bus=L3066816.1 kv=7.2 kVA=15   wdg=2 bus=X3066816A.1.0 kv=0.12 kVA=15   wdg=3 bus=X3066816A.0.2 kv=0.12 kVA=15   %imag=0.0 %Rs=[0.006 0.012 0.012] %noloadloss=.002 Xhl=0.0204  Xht=0.0204  Xlt=0.0136 
New Transformer.T5138469C         phases=1 windings=3  wdg=1 bus=L2785518.3 kv=7.2 kVA=15   wdg=2 bus=X2785518C.1.0 kv=0.12 kVA=15   wdg=3 bus=X2785518C.0.2 kv=0.12 kVA=15   %imag=0.0 %Rs=[0.006 0.012 0.012] %noloadloss=.002 Xhl=0.0204  Xht=0.0204  Xlt=0.0136 
New Transformer.T5138373C         phases=1 windings=3  wdg=1 bus=L3029503.3 kv=7.2 kVA=15   wdg=2 bus=X3029503C.1.0 kv=0.12 kVA=15   wdg=3 bus=X3029503C.0.2 kv=0.12 kVA=15   %imag=0.0 %Rs=[0.006 0.012 0.012] %noloadloss=.002 Xhl=0.0204  Xht=0.0204  Xlt=0.0136 
New Transformer.T5391995A         phases=1 windings=3  wdg=1 bus=L2748140.1 kv=7.2 kVA=25   wdg=2 bus=X2748140A.1.0 kv=0.12 kVA=25   wdg=3 bus=X2748140A.0.2 kv=0.12 kVA=25   %imag=0.0 %Rs=[0.006 0.012 0.012] %noloadloss=.002 Xhl=0.0204  Xht=0.0204  Xlt=0.0136 
New Transformer.T225533423C       phases=1 windings=3  wdg=1 bus=L2891575.3 kv=7.2 kVA=15   wdg=2 bus=X2891575C.1.0 kv=0.12 kVA=15   wdg=3 bus=X2891575C.0.2 kv=0.12 kVA=15   %imag=0.0 %Rs=[0.006 0.012 0.012] %noloadloss=.002 Xhl=0.0204  Xht=0.0204  Xlt=0.0136 
New Transformer.T5260568C         phases=1 windings=3  wdg=1 bus=L2842329.3 kv=7.2 kVA=15   wdg=2 bus=X2842329C.1.0 kv=0.12 kVA=15   wdg=3 bus=X2842329C.0.2 kv=0.12 kVA=15   %imag=0.0 %Rs=[0.006 0.012 0.012] %noloadloss=.002 Xhl=0.0204  Xht=0.0204  Xlt=0.0136 
New Transformer.T5138754B         phases=1 windings=3  wdg=1 bus=L3254212.2 kv=7.2 kVA=37.5 wdg=2 bus=X3254212B.1.0 kv=0.12 kVA=37.5 wdg=3 bus=X3254212B.0.2 kv=0.12 kVA=37.5 %imag=0.0 %Rs=[0.006 0.012 0.012] %noloadloss=.002 Xhl=0.0204  Xht=0.0204  Xlt=0.0136 
New Transformer.T5260552A         phases=1 windings=3  wdg=1 bus=L3198348.1 kv=7.2 kVA=50   wdg=2 bus=X3198348A.1.0 kv=0.12 kVA=50   wdg=3 bus=X3198348A.0.2 kv=0.12 kVA=50   %imag=0.0 %Rs=[0.006 0.012 0.012] %noloadloss=.002 Xhl=0.0204  Xht=0.0204  Xlt=0.0136 
New Transformer.T5338968C         phases=1 windings=3  wdg=1 bus=L3178979.3 kv=7.2 kVA=37.5 wdg=2 bus=X3178979C.1.0 kv=0.12 kVA=37.5 wdg=3 bus=X3178979C.0.2 kv=0.12 kVA=37.5 %imag=0.0 %Rs=[0.006 0.012 0.012] %noloadloss=.002 Xhl=0.0204  Xht=0.0204  Xlt=0.0136 
New Transformer.T5247061A         phases=1 windings=3  wdg=1 bus=L2879054.1 kv=7.2 kVA=25   wdg=2 bus=X2879054A.1.0 kv=0.12 kVA=25   wdg=3 bus=X2879054A.0.2 kv=0.12 kVA=25   %imag=0.0 %Rs=[0.006 0.012 0.012] %noloadloss=.002 Xhl=0.0204  Xht=0.0204  Xlt=0.0136 
New Transformer.T5391746B         phases=1 windings=3  wdg=1 bus=L3085388.2 kv=7.2 kVA=10   wdg=2 bus=X3085388B.1.0 kv=0.12 kVA=10   wdg=3 bus=X3085388B.0.2 kv=0.12 kVA=10   %imag=0.0 %Rs=[0.006 0.012 0.012] %noloadloss=.002 Xhl=0.0204  Xht=0.0204  Xlt=0.0136 
New Transformer.T5338941C         phases=1 windings=3  wdg=1 bus=L2991914.3 kv=7.2 kVA=15   wdg=2 bus=X2991914C.1.0 kv=0.12 kVA=15   wdg=3 bus=X2991914C.0.2 kv=0.12 kVA=15   %imag=0.0 %Rs=[0.006 0.012 0.012] %noloadloss=.002 Xhl=0.0204  Xht=0.0204  Xlt=0.0136 
New Transformer.T5338982B         phases=1 windings=3  wdg=1 bus=L2785534.2 kv=7.2 kVA=25   wdg=2 bus=X2785534B.1.0 kv=0.12 kVA=25   wdg=3 bus=X2785534B.0.2 kv=0.12 kVA=25   %imag=0.0 %Rs=[0.006 0.012 0.012] %noloadloss=.002 Xhl=0.0204  Xht=0.0204  Xlt=0.0136 
New Transformer.T5339008B         phases=1 windings=3  wdg=1 bus=L3122835.2 kv=7.2 kVA=15   wdg=2 bus=X3122835B.1.0 kv=0.12 kVA=15   wdg=3 bus=X3122835B.0.2 kv=0.12 kVA=15   %imag=0.0 %Rs=[0.006 0.012 0.012] %noloadloss=.002 Xhl=0.0204  Xht=0.0204  Xlt=0.0136 
New Transformer.T21391094A        phases=1 windings=3  wdg=1 bus=L3085395.1 kv=7.2 kVA=15   wdg=2 bus=X3085395A.1.0 kv=0.12 kVA=15   wdg=3 bus=X3085395A.0.2 kv=0.12 kVA=15   %imag=0.0 %Rs=[0.006 0.012 0.012] %noloadloss=.002 Xhl=0.0204  Xht=0.0204  Xlt=0.0136 
New Transformer.T5138581A         phases=1 windings=3  wdg=1 bus=L2879064.1 kv=7.2 kVA=25   wdg=2 bus=X2879064A.1.0 kv=0.12 kVA=25   wdg=3 bus=X2879064A.0.2 kv=0.12 kVA=25   %imag=0.0 %Rs=[0.006 0.012 0.012] %noloadloss=.002 Xhl=0.0204  Xht=0.0204  Xlt=0.0136 
New Transformer.T5338979B         phases=1 windings=3  wdg=1 bus=L3066814.2 kv=7.2 kVA=10   wdg=2 bus=X3066814B.1.0 kv=0.12 kVA=10   wdg=3 bus=X3066814B.0.2 kv=0.12 kVA=10   %imag=0.0 %Rs=[0.006 0.012 0.012] %noloadloss=.002 Xhl=0.0204  Xht=0.0204  Xlt=0.0136 
New Transformer.T226308720A       phases=1 windings=3  wdg=1 bus=L2821087.1 kv=7.2 kVA=75   wdg=2 bus=X2821087A.1.0 kv=0.12 kVA=75   wdg=3 bus=X2821087A.0.2 kv=0.12 kVA=75   %imag=0.0 %Rs=[0.006 0.012 0.012] %noloadloss=.002 Xhl=0.0204  Xht=0.0204  Xlt=0.0136 
New Transformer.T5355595B         phases=1 windings=3  wdg=1 bus=L2860479.2 kv=7.2 kVA=10   wdg=2 bus=X2860479B.1.0 kv=0.12 kVA=10   wdg=3 bus=X2860479B.0.2 kv=0.12 kVA=10   %imag=0.0 %Rs=[0.006 0.012 0.012] %noloadloss=.002 Xhl=0.0204  Xht=0.0204  Xlt=0.0136 
New Transformer.T2224387113A      phases=1 windings=3  wdg=1 bus=L3728042.1 kv=7.2 kVA=37.5 wdg=2 bus=X3728042A.1.0 kv=0.12 kVA=37.5 wdg=3 bus=X3728042A.0.2 kv=0.12 kVA=37.5 %imag=0.0 %Rs=[0.006 0.012 0.012] %noloadloss=.002 Xhl=0.0204  Xht=0.0204  Xlt=0.0136 
New Transformer.T21397005A        phases=1 windings=3  wdg=1 bus=L2935557.1 kv=7.2 kVA=37.5 wdg=2 bus=X2935557A.1.0 kv=0.12 kVA=37.5 wdg=3 bus=X2935557A.0.2 kv=0.12 kVA=37.5 %imag=0.0 %Rs=[0.006 0.012 0.012] %noloadloss=.002 Xhl=0.0204  Xht=0.0204  Xlt=0.0136 
New Transformer.T5274985C         phases=1 windings=3  wdg=1 bus=L2822864.3 kv=7.2 kVA=15   wdg=2 bus=X2822864C.1.0 kv=0.12 kVA=15   wdg=3 bus=X2822864C.0.2 kv=0.12 kVA=15   %imag=0.0 %Rs=[0.006 0.012 0.012] %noloadloss=.002 Xhl=0.0204  Xht=0.0204  Xlt=0.0136 
New Transformer.T5321836A         phases=1 windings=3  wdg=1 bus=L3235247.1 kv=7.2 kVA=15   wdg=2 bus=X3235247A.1.0 kv=0.12 kVA=15   wdg=3 bus=X3235247A.0.2 kv=0.12 kVA=15   %imag=0.0 %Rs=[0.006 0.012 0.012] %noloadloss=.002 Xhl=0.0204  Xht=0.0204  Xlt=0.0136 
New Transformer.T225673440A       phases=1 windings=3  wdg=1 bus=L3251807.1 kv=7.2 kVA=25   wdg=2 bus=X3251807A.1.0 kv=0.12 kVA=25   wdg=3 bus=X3251807A.0.2 kv=0.12 kVA=25   %imag=0.0 %Rs=[0.006 0.012 0.012] %noloadloss=.002 Xhl=0.0204  Xht=0.0204  Xlt=0.0136 
New Transformer.T5337641C         phases=1 windings=3  wdg=1 bus=L2804282.3 kv=7.2 kVA=15   wdg=2 bus=X2804282C.1.0 kv=0.12 kVA=15   wdg=3 bus=X2804282C.0.2 kv=0.12 kVA=15   %imag=0.0 %Rs=[0.006 0.012 0.012] %noloadloss=.002 Xhl=0.0204  Xht=0.0204  Xlt=0.0136 
New Transformer.T5293659C         phases=1 windings=3  wdg=1 bus=L2935560.3 kv=7.2 kVA=15   wdg=2 bus=X2935560C.1.0 kv=0.12 kVA=15   wdg=3 bus=X2935560C.0.2 kv=0.12 kVA=15   %imag=0.0 %Rs=[0.006 0.012 0.012] %noloadloss=.002 Xhl=0.0204  Xht=0.0204  Xlt=0.0136 
New Transformer.T5339011B         phases=1 windings=3  wdg=1 bus=L3104145.2 kv=7.2 kVA=15   wdg=2 bus=X3104145B.1.0 kv=0.12 kVA=15   wdg=3 bus=X3104145B.0.2 kv=0.12 kVA=15   %imag=0.0 %Rs=[0.006 0.012 0.012] %noloadloss=.002 Xhl=0.0204  Xht=0.0204  Xlt=0.0136 
New Transformer.T5218473A         phases=1 windings=3  wdg=1 bus=L3086078.1 kv=7.2 kVA=25   wdg=2 bus=X3086078A.1.0 kv=0.12 kVA=25   wdg=3 bus=X3086078A.0.2 kv=0.12 kVA=25   %imag=0.0 %Rs=[0.006 0.012 0.012] %noloadloss=.002 Xhl=0.0204  Xht=0.0204  Xlt=0.0136 
New Transformer.T28121587A        phases=1 windings=3  wdg=1 bus=L2860477.1 kv=7.2 kVA=15   wdg=2 bus=X2860477A.1.0 kv=0.12 kVA=15   wdg=3 bus=X2860477A.0.2 kv=0.12 kVA=15   %imag=0.0 %Rs=[0.006 0.012 0.012] %noloadloss=.002 Xhl=0.0204  Xht=0.0204  Xlt=0.0136 
New Transformer.T2224230689C      phases=1 windings=3  wdg=1 bus=L3645811.3 kv=7.2 kVA=75   wdg=2 bus=X3645811C.1.0 kv=0.12 kVA=75   wdg=3 bus=X3645811C.0.2 kv=0.12 kVA=75   %imag=0.0 %Rs=[0.006 0.012 0.012] %noloadloss=.002 Xhl=0.0204  Xht=0.0204  Xlt=0.0136 
New Transformer.T227734175B       phases=1 windings=3  wdg=1 bus=L3102793.2 kv=7.2 kVA=25   wdg=2 bus=X3102793B.1.0 kv=0.12 kVA=25   wdg=3 bus=X3102793B.0.2 kv=0.12 kVA=25   %imag=0.0 %Rs=[0.006 0.012 0.012] %noloadloss=.002 Xhl=0.0204  Xht=0.0204  Xlt=0.0136 
New Transformer.T5337694B         phases=1 windings=3  wdg=1 bus=L2991910.2 kv=7.2 kVA=15   wdg=2 bus=X2991910B.1.0 kv=0.12 kVA=15   wdg=3 bus=X2991910B.0.2 kv=0.12 kVA=15   %imag=0.0 %Rs=[0.006 0.012 0.012] %noloadloss=.002 Xhl=0.0204  Xht=0.0204  Xlt=0.0136 
New Transformer.T21357515A        phases=1 windings=3  wdg=1 bus=L2710511.1 kv=7.2 kVA=25   wdg=2 bus=X2710511A.1.0 kv=0.12 kVA=25   wdg=3 bus=X2710511A.0.2 kv=0.12 kVA=25   %imag=0.0 %Rs=[0.006 0.012 0.012] %noloadloss=.002 Xhl=0.0204  Xht=0.0204  Xlt=0.0136 
New Transformer.T28127390C        phases=1 windings=3  wdg=1 bus=L2860486.3 kv=7.2 kVA=15   wdg=2 bus=X2860486C.1.0 kv=0.12 kVA=15   wdg=3 bus=X2860486C.0.2 kv=0.12 kVA=15   %imag=0.0 %Rs=[0.006 0.012 0.012] %noloadloss=.002 Xhl=0.0204  Xht=0.0204  Xlt=0.0136 
New Transformer.T21387929C        phases=1 windings=3  wdg=1 bus=L2935551.3 kv=7.2 kVA=15   wdg=2 bus=X2935551C.1.0 kv=0.12 kVA=15   wdg=3 bus=X2935551C.0.2 kv=0.12 kVA=15   %imag=0.0 %Rs=[0.006 0.012 0.012] %noloadloss=.002 Xhl=0.0204  Xht=0.0204  Xlt=0.0136 
New Transformer.T5355605B         phases=1 windings=3  wdg=1 bus=L2729409.2 kv=7.2 kVA=25   wdg=2 bus=X2729409B.1.0 kv=0.12 kVA=25   wdg=3 bus=X2729409B.0.2 kv=0.12 kVA=25   %imag=0.0 %Rs=[0.006 0.012 0.012] %noloadloss=.002 Xhl=0.0204  Xht=0.0204  Xlt=0.0136 
New Transformer.T5260630B         phases=1 windings=3  wdg=1 bus=L2973833.2 kv=7.2 kVA=15   wdg=2 bus=X2973833B.1.0 kv=0.12 kVA=15   wdg=3 bus=X2973833B.0.2 kv=0.12 kVA=15   %imag=0.0 %Rs=[0.006 0.012 0.012] %noloadloss=.002 Xhl=0.0204  Xht=0.0204  Xlt=0.0136 
New Transformer.T5337660C         phases=1 windings=3  wdg=1 bus=L2897769.3 kv=7.2 kVA=25   wdg=2 bus=X2897769C.1.0 kv=0.12 kVA=25   wdg=3 bus=X2897769C.0.2 kv=0.12 kVA=25   %imag=0.0 %Rs=[0.006 0.012 0.012] %noloadloss=.002 Xhl=0.0204  Xht=0.0204  Xlt=0.0136 
New Transformer.T5293663C         phases=1 windings=3  wdg=1 bus=L3216368.3 kv=7.2 kVA=15   wdg=2 bus=X3216368C.1.0 kv=0.12 kVA=15   wdg=3 bus=X3216368C.0.2 kv=0.12 kVA=15   %imag=0.0 %Rs=[0.006 0.012 0.012] %noloadloss=.002 Xhl=0.0204  Xht=0.0204  Xlt=0.0136 
New Transformer.T5138719A         phases=1 windings=3  wdg=1 bus=L2860490.1 kv=7.2 kVA=25   wdg=2 bus=X2860490A.1.0 kv=0.12 kVA=25   wdg=3 bus=X2860490A.0.2 kv=0.12 kVA=25   %imag=0.0 %Rs=[0.006 0.012 0.012] %noloadloss=.002 Xhl=0.0204  Xht=0.0204  Xlt=0.0136 
New Transformer.T5251858C         phases=1 windings=3  wdg=1 bus=L2861158.3 kv=7.2 kVA=25   wdg=2 bus=X2861158C.1.0 kv=0.12 kVA=25   wdg=3 bus=X2861158C.0.2 kv=0.12 kVA=25   %imag=0.0 %Rs=[0.006 0.012 0.012] %noloadloss=.002 Xhl=0.0204  Xht=0.0204  Xlt=0.0136 
New Transformer.T5302804C         phases=1 windings=3  wdg=1 bus=L3141399.3 kv=7.2 kVA=37.5 wdg=2 bus=X3141399C.1.0 kv=0.12 kVA=37.5 wdg=3 bus=X3141399C.0.2 kv=0.12 kVA=37.5 %imag=0.0 %Rs=[0.006 0.012 0.012] %noloadloss=.002 Xhl=0.0204  Xht=0.0204  Xlt=0.0136 
New Transformer.T5356062B         phases=1 windings=3  wdg=1 bus=L3122816.2 kv=7.2 kVA=25   wdg=2 bus=X3122816B.1.0 kv=0.12 kVA=25   wdg=3 bus=X3122816B.0.2 kv=0.12 kVA=25   %imag=0.0 %Rs=[0.006 0.012 0.012] %noloadloss=.002 Xhl=0.0204  Xht=0.0204  Xlt=0.0136 
New Transformer.T5346639C         phases=1 windings=3  wdg=1 bus=L2992556.3 kv=7.2 kVA=15   wdg=2 bus=X2992556C.1.0 kv=0.12 kVA=15   wdg=3 bus=X2992556C.0.2 kv=0.12 kVA=15   %imag=0.0 %Rs=[0.006 0.012 0.012] %noloadloss=.002 Xhl=0.0204  Xht=0.0204  Xlt=0.0136 
New Transformer.T5302508C         phases=1 windings=3  wdg=1 bus=L2897779.3 kv=7.2 kVA=25   wdg=2 bus=X2897779C.1.0 kv=0.12 kVA=25   wdg=3 bus=X2897779C.0.2 kv=0.12 kVA=25   %imag=0.0 %Rs=[0.006 0.012 0.012] %noloadloss=.002 Xhl=0.0204  Xht=0.0204  Xlt=0.0136 
New Transformer.T5321881A         phases=1 windings=3  wdg=1 bus=L2970811.1 kv=7.2 kVA=25   wdg=2 bus=X2970811A.1.0 kv=0.12 kVA=25   wdg=3 bus=X2970811A.0.2 kv=0.12 kVA=25   %imag=0.0 %Rs=[0.006 0.012 0.012] %noloadloss=.002 Xhl=0.0204  Xht=0.0204  Xlt=0.0136 
New Transformer.T5355433C         phases=1 windings=3  wdg=1 bus=L2991933.3 kv=7.2 kVA=50   wdg=2 bus=X2991933C.1.0 kv=0.12 kVA=50   wdg=3 bus=X2991933C.0.2 kv=0.12 kVA=50   %imag=0.0 %Rs=[0.006 0.012 0.012] %noloadloss=.002 Xhl=0.0204  Xht=0.0204  Xlt=0.0136 
New Transformer.T21398402A        phases=1 windings=3  wdg=1 bus=L2729428.1 kv=7.2 kVA=15   wdg=2 bus=X2729428A.1.0 kv=0.12 kVA=15   wdg=3 bus=X2729428A.0.2 kv=0.12 kVA=15   %imag=0.0 %Rs=[0.006 0.012 0.012] %noloadloss=.002 Xhl=0.0204  Xht=0.0204  Xlt=0.0136 
New Transformer.T21398563A        phases=1 windings=3  wdg=1 bus=L3254216.1 kv=7.2 kVA=25   wdg=2 bus=X3254216A.1.0 kv=0.12 kVA=25   wdg=3 bus=X3254216A.0.2 kv=0.12 kVA=25   %imag=0.0 %Rs=[0.006 0.012 0.012] %noloadloss=.002 Xhl=0.0204  Xht=0.0204  Xlt=0.0136 
New Transformer.T21386771B        phases=1 windings=3  wdg=1 bus=L2897807.2 kv=7.2 kVA=15   wdg=2 bus=X2897807B.1.0 kv=0.12 kVA=15   wdg=3 bus=X2897807B.0.2 kv=0.12 kVA=15   %imag=0.0 %Rs=[0.006 0.012 0.012] %noloadloss=.002 Xhl=0.0204  Xht=0.0204  Xlt=0.0136 
New Transformer.T5260648A         phases=1 windings=3  wdg=1 bus=L2898522.1 kv=7.2 kVA=25   wdg=2 bus=X2898522A.1.0 kv=0.12 kVA=25   wdg=3 bus=X2898522A.0.2 kv=0.12 kVA=25   %imag=0.0 %Rs=[0.006 0.012 0.012] %noloadloss=.002 Xhl=0.0204  Xht=0.0204  Xlt=0.0136 
New Transformer.T5293490C         phases=1 windings=3  wdg=1 bus=L3048230.3 kv=7.2 kVA=25   wdg=2 bus=X3048230C.1.0 kv=0.12 kVA=25   wdg=3 bus=X3048230C.0.2 kv=0.12 kVA=25   %imag=0.0 %Rs=[0.006 0.012 0.012] %noloadloss=.002 Xhl=0.0204  Xht=0.0204  Xlt=0.0136 
New Transformer.T225901711A       phases=1 windings=3  wdg=1 bus=L3195327.1 kv=7.2 kVA=15   wdg=2 bus=X3195327A.1.0 kv=0.12 kVA=15   wdg=3 bus=X3195327A.0.2 kv=0.12 kVA=15   %imag=0.0 %Rs=[0.006 0.012 0.012] %noloadloss=.002 Xhl=0.0204  Xht=0.0204  Xlt=0.0136 
New Transformer.T227902981A       phases=1 windings=3  wdg=1 bus=L3047058.1 kv=7.2 kVA=37.5 wdg=2 bus=X3047058A.1.0 kv=0.12 kVA=37.5 wdg=3 bus=X3047058A.0.2 kv=0.12 kVA=37.5 %imag=0.0 %Rs=[0.006 0.012 0.012] %noloadloss=.002 Xhl=0.0204  Xht=0.0204  Xlt=0.0136 
New Transformer.T5321853B         phases=1 windings=3  wdg=1 bus=L2673313.2 kv=7.2 kVA=25   wdg=2 bus=X2673313B.1.0 kv=0.12 kVA=25   wdg=3 bus=X2673313B.0.2 kv=0.12 kVA=25   %imag=0.0 %Rs=[0.006 0.012 0.012] %noloadloss=.002 Xhl=0.0204  Xht=0.0204  Xlt=0.0136 
New Transformer.T2224237653A      phases=1 windings=3  wdg=1 bus=L3649302.1 kv=7.2 kVA=37.5 wdg=2 bus=X3649302A.1.0 kv=0.12 kVA=37.5 wdg=3 bus=X3649302A.0.2 kv=0.12 kVA=37.5 %imag=0.0 %Rs=[0.006 0.012 0.012] %noloadloss=.002 Xhl=0.0204  Xht=0.0204  Xlt=0.0136 
New Transformer.T2224386592A      phases=1 windings=3  wdg=1 bus=L3729297.1 kv=7.2 kVA=25   wdg=2 bus=X3729297A.1.0 kv=0.12 kVA=25   wdg=3 bus=X3729297A.0.2 kv=0.12 kVA=25   %imag=0.0 %Rs=[0.006 0.012 0.012] %noloadloss=.002 Xhl=0.0204  Xht=0.0204  Xlt=0.0136 
New Transformer.T5391990A         phases=1 windings=3  wdg=1 bus=L2858163.1 kv=7.2 kVA=15   wdg=2 bus=X2858163A.1.0 kv=0.12 kVA=15   wdg=3 bus=X2858163A.0.2 kv=0.12 kVA=15   %imag=0.0 %Rs=[0.006 0.012 0.012] %noloadloss=.002 Xhl=0.0204  Xht=0.0204  Xlt=0.0136 
New Transformer.T226881057B       phases=1 windings=3  wdg=1 bus=L3214112.2 kv=7.2 kVA=15   wdg=2 bus=X3214112B.1.0 kv=0.12 kVA=15   wdg=3 bus=X3214112B.0.2 kv=0.12 kVA=15   %imag=0.0 %Rs=[0.006 0.012 0.012] %noloadloss=.002 Xhl=0.0204  Xht=0.0204  Xlt=0.0136 
New Transformer.T225533531A       phases=1 windings=3  wdg=1 bus=L2685805.1 kv=7.2 kVA=25   wdg=2 bus=X2685805A.1.0 kv=0.12 kVA=25   wdg=3 bus=X2685805A.0.2 kv=0.12 kVA=25   %imag=0.0 %Rs=[0.006 0.012 0.012] %noloadloss=.002 Xhl=0.0204  Xht=0.0204  Xlt=0.0136 
New Transformer.T5247056A         phases=1 windings=3  wdg=1 bus=L2991912.1 kv=7.2 kVA=15   wdg=2 bus=X2991912A.1.0 kv=0.12 kVA=15   wdg=3 bus=X2991912A.0.2 kv=0.12 kVA=15   %imag=0.0 %Rs=[0.006 0.012 0.012] %noloadloss=.002 Xhl=0.0204  Xht=0.0204  Xlt=0.0136 
New Transformer.T227905262A       phases=1 windings=3  wdg=1 bus=L3140238.1 kv=7.2 kVA=25   wdg=2 bus=X3140238A.1.0 kv=0.12 kVA=25   wdg=3 bus=X3140238A.0.2 kv=0.12 kVA=25   %imag=0.0 %Rs=[0.006 0.012 0.012] %noloadloss=.002 Xhl=0.0204  Xht=0.0204  Xlt=0.0136 
New Transformer.T21469960B        phases=1 windings=3  wdg=1 bus=L3066830.2 kv=7.2 kVA=25   wdg=2 bus=X3066830B.1.0 kv=0.12 kVA=25   wdg=3 bus=X3066830B.0.2 kv=0.12 kVA=25   %imag=0.0 %Rs=[0.006 0.012 0.012] %noloadloss=.002 Xhl=0.0204  Xht=0.0204  Xlt=0.0136 
New Transformer.T5260511C         phases=1 windings=3  wdg=1 bus=L3160878.3 kv=7.2 kVA=15   wdg=2 bus=X3160878C.1.0 kv=0.12 kVA=15   wdg=3 bus=X3160878C.0.2 kv=0.12 kVA=15   %imag=0.0 %Rs=[0.006 0.012 0.012] %noloadloss=.002 Xhl=0.0204  Xht=0.0204  Xlt=0.0136 
New Transformer.T5138346C         phases=1 windings=3  wdg=1 bus=L2916609.3 kv=7.2 kVA=15   wdg=2 bus=X2916609C.1.0 kv=0.12 kVA=15   wdg=3 bus=X2916609C.0.2 kv=0.12 kVA=15   %imag=0.0 %Rs=[0.006 0.012 0.012] %noloadloss=.002 Xhl=0.0204  Xht=0.0204  Xlt=0.0136 
New Transformer.T225806974A       phases=1 windings=3  wdg=1 bus=L2876814.1 kv=7.2 kVA=10   wdg=2 bus=X2876814A.1.0 kv=0.12 kVA=10   wdg=3 bus=X2876814A.0.2 kv=0.12 kVA=10   %imag=0.0 %Rs=[0.006 0.012 0.012] %noloadloss=.002 Xhl=0.0204  Xht=0.0204  Xlt=0.0136 
New Transformer.T5355944B         phases=1 windings=3  wdg=1 bus=L3197646.2 kv=7.2 kVA=25   wdg=2 bus=X3197646B.1.0 kv=0.12 kVA=25   wdg=3 bus=X3197646B.0.2 kv=0.12 kVA=25   %imag=0.0 %Rs=[0.006 0.012 0.012] %noloadloss=.002 Xhl=0.0204  Xht=0.0204  Xlt=0.0136 
New Transformer.T5138569A         phases=1 windings=3  wdg=1 bus=L2973151.1 kv=7.2 kVA=15   wdg=2 bus=X2973151A.1.0 kv=0.12 kVA=15   wdg=3 bus=X2973151A.0.2 kv=0.12 kVA=15   %imag=0.0 %Rs=[0.006 0.012 0.012] %noloadloss=.002 Xhl=0.0204  Xht=0.0204  Xlt=0.0136 
New Transformer.T5337625C         phases=1 windings=3  wdg=1 bus=L3197627.3 kv=7.2 kVA=25   wdg=2 bus=X3197627C.1.0 kv=0.12 kVA=25   wdg=3 bus=X3197627C.0.2 kv=0.12 kVA=25   %imag=0.0 %Rs=[0.006 0.012 0.012] %noloadloss=.002 Xhl=0.0204  Xht=0.0204  Xlt=0.0136 
New Transformer.T5321874A         phases=1 windings=3  wdg=1 bus=L2764412.1 kv=7.2 kVA=25   wdg=2 bus=X2764412A.1.0 kv=0.12 kVA=25   wdg=3 bus=X2764412A.0.2 kv=0.12 kVA=25   %imag=0.0 %Rs=[0.006 0.012 0.012] %noloadloss=.002 Xhl=0.0204  Xht=0.0204  Xlt=0.0136 
New Transformer.T5337713C         phases=1 windings=3  wdg=1 bus=L2766716.3 kv=7.2 kVA=15   wdg=2 bus=X2766716C.1.0 kv=0.12 kVA=15   wdg=3 bus=X2766716C.0.2 kv=0.12 kVA=15   %imag=0.0 %Rs=[0.006 0.012 0.012] %noloadloss=.002 Xhl=0.0204  Xht=0.0204  Xlt=0.0136 
New Transformer.T5391757B         phases=1 windings=3  wdg=1 bus=L2991917.2 kv=7.2 kVA=10   wdg=2 bus=X2991917B.1.0 kv=0.12 kVA=10   wdg=3 bus=X2991917B.0.2 kv=0.12 kVA=10   %imag=0.0 %Rs=[0.006 0.012 0.012] %noloadloss=.002 Xhl=0.0204  Xht=0.0204  Xlt=0.0136 
New Transformer.T5338998B         phases=1 windings=3  wdg=1 bus=L3254229.2 kv=7.2 kVA=25   wdg=2 bus=X3254229B.1.0 kv=0.12 kVA=25   wdg=3 bus=X3254229B.0.2 kv=0.12 kVA=25   %imag=0.0 %Rs=[0.006 0.012 0.012] %noloadloss=.002 Xhl=0.0204  Xht=0.0204  Xlt=0.0136 
New Transformer.T5356064B         phases=1 windings=3  wdg=1 bus=L2935556.2 kv=7.2 kVA=25   wdg=2 bus=X2935556B.1.0 kv=0.12 kVA=25   wdg=3 bus=X2935556B.0.2 kv=0.12 kVA=25   %imag=0.0 %Rs=[0.006 0.012 0.012] %noloadloss=.002 Xhl=0.0204  Xht=0.0204  Xlt=0.0136 
New Transformer.T5323275B         phases=1 windings=3  wdg=1 bus=L3197660.2 kv=7.2 kVA=25   wdg=2 bus=X3197660B.1.0 kv=0.12 kVA=25   wdg=3 bus=X3197660B.0.2 kv=0.12 kVA=25   %imag=0.0 %Rs=[0.006 0.012 0.012] %noloadloss=.002 Xhl=0.0204  Xht=0.0204  Xlt=0.0136 
New Transformer.T21389237A        phases=1 windings=3  wdg=1 bus=L2989565.1 kv=7.2 kVA=25   wdg=2 bus=X2989565A.1.0 kv=0.12 kVA=25   wdg=3 bus=X2989565A.0.2 kv=0.12 kVA=25   %imag=0.0 %Rs=[0.006 0.012 0.012] %noloadloss=.002 Xhl=0.0204  Xht=0.0204  Xlt=0.0136 
New Transformer.T2224230615C      phases=1 windings=3  wdg=1 bus=L3645809.3 kv=7.2 kVA=50   wdg=2 bus=X3645809C.1.0 kv=0.12 kVA=50   wdg=3 bus=X3645809C.0.2 kv=0.12 kVA=50   %imag=0.0 %Rs=[0.006 0.012 0.012] %noloadloss=.002 Xhl=0.0204  Xht=0.0204  Xlt=0.0136 
New Transformer.T5260463B         phases=1 windings=3  wdg=1 bus=L3086075.2 kv=7.2 kVA=15   wdg=2 bus=X3086075B.1.0 kv=0.12 kVA=15   wdg=3 bus=X3086075B.0.2 kv=0.12 kVA=15   %imag=0.0 %Rs=[0.006 0.012 0.012] %noloadloss=.002 Xhl=0.0204  Xht=0.0204  Xlt=0.0136 
New Transformer.T5302402A         phases=1 windings=3  wdg=1 bus=L3122824.1 kv=7.2 kVA=15   wdg=2 bus=X3122824A.1.0 kv=0.12 kVA=15   wdg=3 bus=X3122824A.0.2 kv=0.12 kVA=15   %imag=0.0 %Rs=[0.006 0.012 0.012] %noloadloss=.002 Xhl=0.0204  Xht=0.0204  Xlt=0.0136 
New Transformer.T5355599B         phases=1 windings=3  wdg=1 bus=L3216338.2 kv=7.2 kVA=25   wdg=2 bus=X3216338B.1.0 kv=0.12 kVA=25   wdg=3 bus=X3216338B.0.2 kv=0.12 kVA=25   %imag=0.0 %Rs=[0.006 0.012 0.012] %noloadloss=.002 Xhl=0.0204  Xht=0.0204  Xlt=0.0136 
New Transformer.T21393412B        phases=1 windings=3  wdg=1 bus=L2729405.2 kv=7.2 kVA=25   wdg=2 bus=X2729405B.1.0 kv=0.12 kVA=25   wdg=3 bus=X2729405B.0.2 kv=0.12 kVA=25   %imag=0.0 %Rs=[0.006 0.012 0.012] %noloadloss=.002 Xhl=0.0204  Xht=0.0204  Xlt=0.0136 
New Transformer.T5356807A         phases=1 windings=3  wdg=1 bus=L2823545.1 kv=7.2 kVA=25   wdg=2 bus=X2823545A.1.0 kv=0.12 kVA=25   wdg=3 bus=X2823545A.0.2 kv=0.12 kVA=25   %imag=0.0 %Rs=[0.006 0.012 0.012] %noloadloss=.002 Xhl=0.0204  Xht=0.0204  Xlt=0.0136 
New Transformer.T5293660B         phases=1 windings=3  wdg=1 bus=L2916610.2 kv=7.2 kVA=25   wdg=2 bus=X2916610B.1.0 kv=0.12 kVA=25   wdg=3 bus=X2916610B.0.2 kv=0.12 kVA=25   %imag=0.0 %Rs=[0.006 0.012 0.012] %noloadloss=.002 Xhl=0.0204  Xht=0.0204  Xlt=0.0136 
New Transformer.T227731863A       phases=1 windings=3  wdg=1 bus=L3177665.1 kv=7.2 kVA=37.5 wdg=2 bus=X3177665A.1.0 kv=0.12 kVA=37.5 wdg=3 bus=X3177665A.0.2 kv=0.12 kVA=37.5 %imag=0.0 %Rs=[0.006 0.012 0.012] %noloadloss=.002 Xhl=0.0204  Xht=0.0204  Xlt=0.0136 
New Transformer.T227760021A       phases=1 windings=3  wdg=1 bus=L2803199.1 kv=7.2 kVA=50   wdg=2 bus=X2803199A.1.0 kv=0.12 kVA=50   wdg=3 bus=X2803199A.0.2 kv=0.12 kVA=50   %imag=0.0 %Rs=[0.006 0.012 0.012] %noloadloss=.002 Xhl=0.0204  Xht=0.0204  Xlt=0.0136 
New Transformer.T227760021B       phases=1 windings=3  wdg=1 bus=L2803199.2 kv=7.2 kVA=50   wdg=2 bus=X2803199B.1.0 kv=0.12 kVA=50   wdg=3 bus=X2803199B.0.2 kv=0.12 kVA=50   %imag=0.0 %Rs=[0.006 0.012 0.012] %noloadloss=.002 Xhl=0.0204  Xht=0.0204  Xlt=0.0136 
New Transformer.T227760021C       phases=1 windings=3  wdg=1 bus=L2803199.3 kv=7.2 kVA=50   wdg=2 bus=X2803199C.1.0 kv=0.12 kVA=50   wdg=3 bus=X2803199C.0.2 kv=0.12 kVA=50   %imag=0.0 %Rs=[0.006 0.012 0.012] %noloadloss=.002 Xhl=0.0204  Xht=0.0204  Xlt=0.0136 
New Transformer.T5391980A         phases=1 windings=3  wdg=1 bus=L2691952.1 kv=7.2 kVA=15   wdg=2 bus=X2691952A.1.0 kv=0.12 kVA=15   wdg=3 bus=X2691952A.0.2 kv=0.12 kVA=15   %imag=0.0 %Rs=[0.006 0.012 0.012] %noloadloss=.002 Xhl=0.0204  Xht=0.0204  Xlt=0.0136 
New Transformer.T5338984A         phases=1 windings=3  wdg=1 bus=L2748144.1 kv=7.2 kVA=25   wdg=2 bus=X2748144A.1.0 kv=0.12 kVA=25   wdg=3 bus=X2748144A.0.2 kv=0.12 kVA=25   %imag=0.0 %Rs=[0.006 0.012 0.012] %noloadloss=.002 Xhl=0.0204  Xht=0.0204  Xlt=0.0136 
New Transformer.T5337702B         phases=1 windings=3  wdg=1 bus=L3029504.2 kv=7.2 kVA=25   wdg=2 bus=X3029504B.1.0 kv=0.12 kVA=25   wdg=3 bus=X3029504B.0.2 kv=0.12 kVA=25   %imag=0.0 %Rs=[0.006 0.012 0.012] %noloadloss=.002 Xhl=0.0204  Xht=0.0204  Xlt=0.0136 
New Transformer.T5337696B         phases=1 windings=3  wdg=1 bus=L3197635.2 kv=7.2 kVA=15   wdg=2 bus=X3197635B.1.0 kv=0.12 kVA=15   wdg=3 bus=X3197635B.0.2 kv=0.12 kVA=15   %imag=0.0 %Rs=[0.006 0.012 0.012] %noloadloss=.002 Xhl=0.0204  Xht=0.0204  Xlt=0.0136 
New Transformer.T225577437C       phases=1 windings=3  wdg=1 bus=L2724120.3 kv=7.2 kVA=25   wdg=2 bus=X2724120C.1.0 kv=0.12 kVA=25   wdg=3 bus=X2724120C.0.2 kv=0.12 kVA=25   %imag=0.0 %Rs=[0.006 0.012 0.012] %noloadloss=.002 Xhl=0.0204  Xht=0.0204  Xlt=0.0136 
New Transformer.T5337676A         phases=1 windings=3  wdg=1 bus=L3235244.1 kv=7.2 kVA=25   wdg=2 bus=X3235244A.1.0 kv=0.12 kVA=25   wdg=3 bus=X3235244A.0.2 kv=0.12 kVA=25   %imag=0.0 %Rs=[0.006 0.012 0.012] %noloadloss=.002 Xhl=0.0204  Xht=0.0204  Xlt=0.0136 
New Transformer.T5323418A         phases=1 windings=3  wdg=1 bus=L2804254.1 kv=7.2 kVA=25   wdg=2 bus=X2804254A.1.0 kv=0.12 kVA=25   wdg=3 bus=X2804254A.0.2 kv=0.12 kVA=25   %imag=0.0 %Rs=[0.006 0.012 0.012] %noloadloss=.002 Xhl=0.0204  Xht=0.0204  Xlt=0.0136 
New Transformer.T226192936B       phases=1 windings=3  wdg=1 bus=L2820531.2 kv=7.2 kVA=25   wdg=2 bus=X2820531B.1.0 kv=0.12 kVA=25   wdg=3 bus=X2820531B.0.2 kv=0.12 kVA=25   %imag=0.0 %Rs=[0.006 0.012 0.012] %noloadloss=.002 Xhl=0.0204  Xht=0.0204  Xlt=0.0136 
...
